personal_ws-1.1 en 0
KVS
kvs
api
comms
dev
dir
doctype
dropcache
fromkvs
github
json
linkname
manpage
mkdir
multicast
namespace
readlink
tokvs
adoc
apisock
cmbd
cmd
ZMTP
stderr
stdout
stdin
stdio
CurveCP
CurveZMQ
IPC
ZeroMQ
keygen
KEYGEN
MUNGE
TCP
UID
UUID
uuids
ok
crit
topo
msec
cmb
syslog
graphviz
prepended
multipart
hb
Tpng
nodesets
keepalives
emerg
gettimeofday
tmpdir
tmp
DocBook
Livermore
LLC
Stylesheets
XSL
conf
google
zeromq
EOF
Init
LD
LWJ
LWJs
MPI
MVAPICH
PMI
Prepend
TotalView
WRECKRUN
builddir
cmdline
egrep
epidkey
hiWSLCPRzqFYHNubktbCQ
hostname
io
jobid
knowlege
labelio
libpmi
lwj
mpi
mpicc
nnodes
noinput
ntasks
pmi
resrc
runtime
src
tpn
uuid
wreckrun
wrexec
wrexecd
ary
baz
EPGM
modopts
nodeset
noexec
pre
slurm
srun
cryptographic
unlink
timestamped
libs
scalable
config
sbin
zpl
libexec
usr
setenv
getenv
repo
lua
cpath
DEST
heartrate
logdest
modopt
noshell
plugins
sid
SIGKILL
tty
uri
usefile
secdir
boolean
argc
argv
const
modctl
MODPATH
SHA
fanout
NOHOST
sysexits
NODEID
SIGINT
SIGTERM
signo
subprocess
subprocesses
PID
ps
Livermore
LLC
adoc
doctype
github
manpage
printf
const
doctype
nonblock
recv
stderr
tmpdir
uri
bitmask
cb
EINVAL
EAGAIN
ENOSYS
ENOMEM
errno
strerror
ev
fw
init
io
offsetof
POLLERR
POLLIN
POLLOUT
pollevents
pollfd
requeue
revents
struct
typedef
msg
nodeid
pre
bsize
comms
initializers
matchtag
requeued
typemask
uint
requeues
RQ
libev
baz
hb
unsubscribe
unsubscribes
zeromq
ZeroMQ
libflux
arg
destructor
libev
libev's
ZMQ
EB
buf
EPROTO
EWOULDBLOCK
fd
iobuf
recvfd
sendfd
matchtags
NORESPONSE
rpc
str
trpc
tmrpc
mrpcf
bool
mrpc
topen
tevent
tsend
trecv
scalability
env
ENV
TIMEDFLUSH
HWMFLUSH
treduce
itemweight
unreduced
HWM
unweighted
WCOUNT
tinfo
hwloc
epgm
args
arity
attr
ATTRFLAG
ENOENT
EPERM
READONLY
tbon
attrget
getattr
lsattr
setattr
buflimit
bufcount
dmesg
jitter
zmq
nowait
zsock
msgtype
cmp
fnmatch
wildcards
addvec
delvec
msghandler
SIGCHLD
signum
pid
rpid
rstatus
waitpid
rstat
prev
nlink
inotify
ipc
FILENAME
dst
taskid
taskids
errnum
sqlite
sophia
sha
blobref
blobrefs
lstopo
xml
filesystem
filename
PYTHONPATH
localhost
EEXIST
rsh
RCMD
pty
Cron
CRON
cron
lifecycle
rexec
subcommand
stddev
RTT
wakeup
crontab
appname
maxlevel
wireup
hwm
recurse
treeobj
unlinked
getat
lookup
dirat
readlinkat
fmt
getf
jansson
jansson's
rpcf
decodef
len
respondf
encodef
UTF
whitespace
dirsize
subdirectories
adc
afd
bfef
da
ee
EFBIG
fc
maxblob
metadata
treeref
valref
ver
rundir
walltime
clearbit
getrusage
objname
rusage
setbit
rolemask
userid
selfpmi
aggregator
UTC
addrole
delrole
strtoul
userdb
scratchdir
EHOSTUNREACH
ap
MSGID
NULL's
ORed
PRI
procid
progname
timestamp
va
vlog
wallclock
DIRREF
ec
FFFFFFFF
FFFFFFFFF
rootdir
IP
mcast
PUs
ETIMEDOUT
fn
destructors
ENOTDIR
EISDIR
READDIR
lookupat
symlink
nprocs
procs
txn
kvsdir
vpack
dirref
lookups
mh
