personal_ws-1.1 en 0
KVS
kvs
api
comms
dir
doctype
dropcache
fromkvs
github
json
linkname
manpage
mkdir
multicast
namespace
readlink
tokvs
adoc
apisock
cmbd
cmd
ZMTP
stderr
stdout
stdin
stdio
CurveCP
CurveZMQ
IPC
ZeroMQ
keygen
KEYGEN
MUNGE
TCP
UID
UUID
uuids
ok
crit
topo
msec
cmb
syslog
graphviz
prepended
multipart
hb
Tpng
nodesets
keepalives
emerg
gettimeofday
tmpdir
tmp
DocBook
Livermore
LLC
Stylesheets
XSL
conf
google
zeromq
EOF
Init
LD
LWJ
LWJs
MPI
MVAPICH
PMI
Prepend
TotalView
WRECKRUN
builddir
cmdline
egrep
epidkey
hiWSLCPRzqFYHNubktbCQ
hostname
io
jobid
knowlege
labelio
libpmi
lwj
mpi
mpicc
nnodes
ntasks
pmi
resrc
runtime
src
tpn
uuid
wreckrun
wrexec
wrexecd
ary
baz
EPGM
modopts
nodeset
noexec
pre
slurm
srun
cryptographic
unlink
timestamped
libs
scalable
config
sbin
zpl
libexec
usr
setenv
getenv
repo
lua
cpath
DEST
heartrate
logdest
modopt
noshell
plugins
sid
SIGKILL
tty
uri
usefile
secdir
boolean
argc
argv
const
modctl
MODPATH
SHA
fanout
NOHOST
sysexits
NODEID
SIGINT
SIGTERM
signo
subprocess
PID
ps
Livermore
LLC
adoc
doctype
github
manpage
printf
const
coproc
coprocesses
doctype
nonblock
recv
stderr
tmpdir
uri
bitmask
cb
EINVAL
EAGAIN
ENOSYS
ENOMEM
errno
strerror
ev
fw
init
io
offsetof
POLLERR
POLLIN
POLLOUT
pollevents
pollfd
requeue
revents
struct
typedef
msg
nodeid
pre
bsize
comms
coprocess
initializers
matchtag
requeued
typemask
uint
requeues
RQ
libev
baz
hb
unsubscribe
unsubscribes
zeromq
ZeroMQ
libflux
arg
destructor
libev
libev's
ZMQ
EB
