personal_ws-1.1 en 0
maxdepth
literalinclude
toctree
rst
proc
localid
exitcode
getline
plugstack
setlevel
errn
dest
killall
sig
unsets
setenvf
environ
substring
asprintf
KVS
kvs
api
comms
dev
dir
doctype
dropcache
fromkvs
github
json
linkname
manpage
mkdir
multicast
namespace
readlink
tokvs
adoc
apisock
cmd
ZMTP
stderr
stdout
stdin
stdio
CurveCP
CurveZMQ
IPC
ZeroMQ
keygen
KEYGEN
MUNGE
TCP
UID
UUID
uuids
ok
crit
topo
msec
cmb
syslog
graphviz
prepended
multipart
Tpng
keepalives
emerg
gettimeofday
tmpdir
tmp
DocBook
Livermore
LLC
Stylesheets
XSL
conf
google
zeromq
EOF
Init
LD
LWJ
LWJs
MPI
MVAPICH
PMI
Prepend
TotalView
WRECKRUN
builddir
cmdline
egrep
epidkey
hiWSLCPRzqFYHNubktbCQ
hostname
io
jobid
jobids
libpmi
lwj
mpi
mpicc
nnodes
noinput
ntasks
ncores
pmi
resrc
runtime
src
tpn
uuid
ary
baz
EPGM
modopts
noexec
pre
slurm
srun
cryptographic
unlink
timestamped
libs
scalable
config
sbin
zpl
libexec
usr
setenv
getenv
repo
lua
cpath
DEST
logdest
modopt
noshell
plugins
sid
SIGKILL
tty
uri
usefile
secdir
boolean
argc
argv
const
modctl
MODPATH
SHA
fanout
NOHOST
sysexits
NODEID
SIGINT
SIGTERM
signo
subprocess
subprocesses
PID
ps
Livermore
LLC
adoc
doctype
github
manpage
printf
const
doctype
nonblock
recv
stderr
tmpdir
uri
bitmask
cb
EINVAL
EAGAIN
ENOSYS
ENOMEM
errno
strerror
ev
fw
init
io
offsetof
POLLERR
POLLIN
POLLOUT
pollevents
pollfd
requeue
revents
struct
typedef
msg
nodeid
pre
bsize
comms
initializers
matchtag
requeued
typemask
uint
requeues
RQ
libev
baz
unsubscribe
unsubscribes
zeromq
ZeroMQ
libflux
arg
destructor
libev
libev's
ZMQ
EB
buf
EPROTO
EWOULDBLOCK
fd
iobuf
recvfd
sendfd
matchtags
NORESPONSE
rpc
str
trpc
bool
topen
tevent
tsend
trecv
tsync
scalability
env
ENV
TIMEDFLUSH
HWMFLUSH
treduce
itemweight
unreduced
HWM
unweighted
WCOUNT
tinfo
hwloc
epgm
args
attr
ATTRFLAG
ENOENT
EPERM
READONLY
tbon
attrget
getattr
lsattr
setattr
buflimit
bufcount
dmesg
jitter
zmq
nowait
zsock
msgtype
cmp
fnmatch
wildcards
addvec
delvec
msghandler
SIGCHLD
signum
pid
rpid
rstatus
waitpid
rstat
prev
nlink
inotify
ipc
FILENAME
dst
taskid
taskids
errnum
sqlite
sophia
sha
blobref
blobrefs
lstopo
xml
filesystem
filename
PYTHONPATH
localhost
EEXIST
rsh
RCMD
pty
Cron
CRON
cron
lifecycle
rexec
subcommand
subcommands
stddev
RTT
wakeup
crontab
appname
maxlevel
wireup
hwm
recurse
treeobj
unlinked
getat
lookup
dirat
readlinkat
fmt
getf
jansson
jansson's
rpcf
decodef
len
respondf
encodef
UTF
whitespace
dirsize
subdirectories
adc
afd
bfef
da
ee
EFBIG
fc
maxblob
metadata
treeref
valref
ver
rundir
walltime
clearbit
getrusage
objname
rusage
setbit
rolemask
userid
selfpmi
UTC
addrole
delrole
strtoul
EHOSTUNREACH
ap
MSGID
NULL's
ORed
PRI
procid
progname
timestamp
va
vlog
wallclock
DIRREF
ec
FFFFFFFF
FFFFFFFFF
rootdir
IP
mcast
PUs
ETIMEDOUT
fn
destructors
ENOTDIR
EISDIR
READDIR
lookupat
symlink
nprocs
procs
txn
kvsdir
vpack
dirref
lookups
mh
namespaces
ENOTSUP
EOVERFLOW
itr
JOBIDS
ns
Embde
idset
AUTOGROW
findNext
findPrevious
vEB
lflux
resizing
HOSTLIST
hostlist
hostlists
nodelist
hostnames
unfulfills
MSGFLAG
errstr
valgrind
NODENAME
dumplog
getopt
params
sched
setopt
unsetenv
CUDA
GPU
GPUs
cpu
distrib
epilog
gpubind
gpus
fulfillments
enodata
getroot
eventlog
eventlogs
nocopy
srckey
dstkey
semver
versioning
JOBNAME
LGPL
SPDX
MATCHDEBUG
Ctrl
UNIQ
startup
errmsg
WAITCREATE
incref
decref
vv
vvv
jobspec
FSD
enqueues
cpus
gpu
idsets
systemd
toml
unordered
fsd
hms
username
submitter's
enqueue
nslots
alloc
datetime
formatter
ndecode
dothex
cwd
execve
initrc
INITRC
loglevel
overwrite
PTRACE
rankinfo
rc
rcpath
searchpath
sysconfdir
TRACEME
WIFEXTED
builtin
OMP
envfile
regex
encodings
dec
subkey
waitstatus
returncode
bulksubmit
basename
bcc
dirname
jps
xargs
sep
RPCs
jobtap
unavail
reprioritize
reprioritization
afterany
afterok
afternotok
parsedatetime
cancelall
raiseall
keepalive
linux
starttime
undraining
unix
zmqdebug
perilogs
prolog
pstree
ThreadPoolExecutor
rootref
ECONNRESET
SIGCONT
SIGHUP
nohup
parallelize
reparented
cPMS
HmSnHd
Hjxo
JqUHUCzX
MYrwzf
NJOBS
PROG
utPP
uusNLo
hwloc
undrain
QBfmbm
ascii
listpids
pidof
Pz
qxxTiZBM
scontrol
URIs
XFWP
xVu
NOSUB
RPCTRACK
getsockopt
accessor
accessors
unregister
IPv
ipv
maxlen
mgmt
tcp
URIs
DNS
etest
eth
setuid
IDset
busytimeout
dbpath
pragma
satisfiability
fluxion
systemctl
MQ
prefertcp
desynchronized
multi
sysctl
pluginpath
uptime
startlog
timestamps
runstatedir
libexecdir
bindir
cmdhelp
MANPATH
bargraph
emoji
bzip
cpio
gzip
libarchive
OUTFILE
INFILE
POSIX
ustar
xz
validator
statedir
num
gc
tgz
tmpfiles
EDEADLOCK
setpgrp
nosetpgrp
checkpointed
pbatch
pdebug
parentof
bg
norestrict
frobnicator
frobnication
fcfs
lonodex
nosched
qmanager
rv
DIRS
myformat
xdg
XDG
yaml
enqueued
kary
getrlimit
memlock
MEMLOCK
msgqueue
nofile
NOFILE
ofile
RLIM
rlimit
RLIMIT
rtprio
rttime
sigpending
chunksize
taskmap
multiline
sudo
sysconfig
destdir
filemap
dataset
fileref
mmap
unmap
unmaps
ds
rf
ACLs
SIGBUS
tmpfs
nocheckpoint
CPUs
cpuset
taskset
nomap
timeleft
waitable
novalidate
ngpus
rlist
propertiesx
pgrep
pkill
deps
queuem
timelimit
unarchived
subinstance
AKHno
mybatch
Zq
testprog
libc
unbuffered
statex
pmix
SIGUSR
iteratively
noverify
sdbus
sdexec
NONINTERACTIVE
hwlocality
snprintf
MemoryHigh
MemoryMax
MemoryLow
MemoryMin
myattr
autotools
cd
debbuild
debian
distros
dockerhub
fluxrm
LLNL
redhat
RHEL
spack
ubuntu
xzf
APIs
HPC
infinitum
OpenMPI
inclusivity
lgplv
png
alice
LSF
sbatch
salloc
MpiDefault
se
SoiFq
SoPsfdA
Ub
jsrun
Kubernetes
MPICH
mpiexec
passwordless
pdsh
bashrc
endreason
HUP
fi
lsf
sl
ABfkxas
ABfkxat
ABhEwsD
ABiiw
ABkCvRu
cbUvuHDCiB
croSDd
ctHRVy
ctHRVz
cTzRVhnrW
cumQnK
cwFQ
uAsjAo
resched
func
rfc
envvar
dlopen
executables
gethostname
IPADDR
MCA
misconfiguration
ogpu
opmi
printenv
XMLFILE
initio
mortem
natively
execvp
gdb
libtool
prepend
noflux
param
perres
pertask
mpibind
sys
allocator
INITFULL
ITER
maxid
unallocated
NUL
ssize
waitcreate
unformatted
uniq
unreferenced
restartable
ramdisk
loopback
DSO
subtree
ERANGE
hl
noresponse
moldable
aspirational
infeasible
login
workflow
xmlfile
hostfile
ano
myapp
unlinks
VM
fred
unmapped
kbd
adminarch
AiVi
auth
coredump
coredumpctl
fatnode
fubar
javascript
journalctl
jsonschema
localuser
munge
mv
myapp
nproc
pam
PEERCRED
perilog
pluggable
resolvers
respawn
Sj
testprop
ttl
uncomment
unsatisfiable
validators
hostpids
Xauth
dbus
intree
aes
dshbak
gid
testuser
timedatectl
uid
unmunge
xyz
befdac
cec
CGroup
drwxr
ecb
eea
ef
le
ExecStartPre
loginctl
md
norestart
Sbroker
Scontent
sd
Srundir
Sstatedir
xr
acknowledgements
netdev
LimitCORE
WorkingDirectory
aa
aaa
aacc
aff
bbb
camlistore
dde
fbe
fe
hdir
NDIyCg
recursing
setroot
SRMPDS
Vogel
ZFS
programmatically
transactional
keypair
unterminated
upmi
testexec
rcvhwm
libzmq
userrc
DEEPBIND
PRELOAD
RTLD
dlopened
ne
oneshot
peridir
periname
templated
CIDR
enp
mincores
minnodes
